<?xml version="1.0" encoding="UTF-8"?>

<!-- generated on 2025-01-15 21:55:12 by Eclipse SUMO netedit Version 1.21.0
-->

<routes xmlns:xsi="http://www.w3.org/2001/XMLSchema-instance" xsi:noNamespaceSchemaLocation="http://sumo.dlr.de/xsd/routes_file.xsd">
    <!-- VTypes -->
    <vType id="AV" color="yellow"/>
    <vType id="HV" color="green"/>
    <!-- Vehicles, persons and containers (sorted by depart) -->
    <flow id="f_0" type="HV" begin="0.00" departSpeed="random" departLane="random" from="-E6" to="E5" end="50.00" number="25"/>
    <flow id="f_1" type="HV" begin="0.00" departSpeed="random" departLane="random" from="-E3" to="E6" end="50.00" number="25"/>
    <flow id="f_2" type="HV" begin="0.00" departSpeed="random" departLane="random" from="-E4" to="E3" end="50.00" number="25"/>
    <flow id="f_3" type="HV" begin="0.00" departSpeed="random" departLane="random" from="-E5" to="E4" end="50.00" number="25"/>
    <flow id="f_4" type="HV" begin="0.00" departSpeed="random" departLane="random" from="E10" to="E5" end="50.00" number="50"/>
    <flow id="f_5" type="HV" begin="0.00" departSpeed="random" departLane="random" from="E11_1" to="E6" end="50.00" number="50"/>
    <flow id="f_6" type="HV" begin="0.00" departSpeed="random" departLane="random" from="E12_1" to="E3" end="50.00" number="50"/>
    <flow id="f_7" type="HV" begin="0.00" departSpeed="random" departLane="random" from="E13_1" to="E4" end="50.00" number="50"/>
    <trip id="t_0" type="AV" depart="20.00" departLane="best" from="-E6" to="E5"/>
    <trip id="t_1" type="AV" depart="30.00" departLane="best" from="-E3" to="E6"/>
    <trip id="t_2" type="AV" depart="40.00" departLane="best" from="-E5" to="E4"/>
</routes>
