<?xml version="1.0" encoding="UTF-8"?>

<!-- generated on 2025-01-15 15:47:37 by Eclipse SUMO sumo Version 1.21.0
-->

<sumoConfiguration xmlns:xsi="http://www.w3.org/2001/XMLSchema-instance" xsi:noNamespaceSchemaLocation="http://sumo.dlr.de/xsd/sumoConfiguration.xsd">

    <input>
        <net-file value="25115_2.net.xml"/>
        <route-files value="25115_2.rou.xml"/>
        <additional-files value="25115_2.add.xml"/>
    </input>

</sumoConfiguration>
